CM QFH optimized for LCP gain and circularity
CM By Peter Renner
CE
GW	1	8	0.02	0	0.560	0.182	0	0.560	1.e-3
GW	2	8	-0.182	0	0.560	-0.02	0	0.560	1.e-3
GW	3	8	0	0.178	0.560	0	0.02	0.560	1.e-3
GW	4	8	0	-0.02	0.560	0	-0.178	0.560	1.e-3
GW	5	8	0	0.178	0.048	0	-.178	0.048	1.e-3
GW	6	8	-0.182	0	0	.182	0	0	1.e-3
GW	7	3	-0.02	0	0.560	0	0.02	0.560	1.e-3
GW	8	3	0.02	0	0.560	0	-0.02	0.560	1.e-3
GH	9	50	-1.12	0.560	0.182	0.182	0.182	0.182	1.e-3
GM	9	1	0	0	180	0	0	0	9
GH	10	50	1.022	-.512	.178	.178	.178	.178	1.e-3
GM	10	0	0	0	0	0	0	.048	10
GH	11	50	1.022	-.512	-.178	-.178	-.178	-.178	1.e-3
GM	11	0	0	0	0	0	0	.048	11
GM	0	0	0	0	0	0	0	1.44
GE	-1
LD	5	0	0	0	58000000
GN	2	0	0	0	3	0.0001
EK
EX	0	7	2	0	1	0	0
EX	0	8	2	0	0	1	0	0
FR	0	0	0	0	137.498	0
EN
