CM QFH optimized for LCP gain and circularity
CM By Peter Renner
CE
GW	1	1	0.02	0	0.7298	0.1406	0	0.7298	1.e-3
GW	2	1	-0.1406	0	0.7298	-0.02	0	0.7298	1.e-3
GW	3	1	0	0.1327	0.7298	0	0.02	0.7298	1.e-3
GW	4	1	0	-0.02	0.7298	0	-0.1327	0.7298	1.e-3
GE	0
EK
LD	5	0	0	0	5.8e7	0
EX	6	801	1	0	0	1
GN	-1
FR	0	1	0	0	1.37498e2	0
