CM QFH optimized for LCP gain and circularity
CM By Peter Renner
CE
GW	1	12	0.02	0	0.7298	0.1406	0	0.7298	1.e-3
GW	2	12	-0.141	0	0.7298	-0.02	0	0.7298	1.e-3
GW	3	12	0	0.13	0.7298	0	0.02	0.7298	1.e-3
GW	4	12	0	-0.02	0.7298	0	-0.13	0.7298	1.e-3
GW	5	12	0	0.13	0.039	0	-0.13	0.039	1.e-3
GW	6	12	-0.14	0	0	0.14	0	0	1.e-3
GW	7	12	-0.02	0	0.7298	0	0.02	0.7298	1.e-3
GW	8	12	0.02	0	0.7298	0	-0.02	0.7298	1.e-3
GH	9	50	-1.46	0.730	0.14	.14	.14	.14	1.e-3
GM	9	1	0	0	180	0	0	0	9
GH	10	50	1.38	-.692	.13	.13	.13	.13	1.e-3
GM	10	0	0	0	0	0	0	.039	10
GH	11	50	1.38	-.692	-.13	-.13	-.13	-.13	1.e-3
GM	11	0	0	0	0	0	0	.039	11
GE	0
LD	5	0	0	0	58000000
GN	-1
EK
EX	0	7	8	0	1	0	0
EX	0	8	4	0	0	1	0
FR	0	0	0	0	137.498	0
EN
