CM QFH optimized for LCP gain and circularity
CM By Peter Renner
CE
GW	7	10	-0.13	0	0	0.13	0	0	1.e-3
GW	8	11	-0.13	0	0.73	0.13	0	0.73	1.e-3
GW	9	11	0	-0.14	0.71	0	0.14	0.71	1.e-3
GW	10	10	0	-0.14	0.03	0	0.14	0.03	1.e-3
GH	11	30	-1.46	.730	.13	.13	.13	.13	1.e-3
GM	11	1	0	0	180	0	0	0	1.e-3
GH	12	30	1.36	-.68	-.14	-.14	-.14	-.14	1.e-3
GM	12	0	0	0	0	0	0	0.03	12
GH	13	30	1.36	-.68	.14	.14	.14	.14	1.e-3
GM	13	0	0	0	0	0	0	0.03	13
GM	0	0	0	0	0	0	0	1.2
GE	0
LD	5	0	0	0	58000000
GN	-1
EK
EX	0	8	6	0	1	0	0
EX	0	9	6	0	0	1	0
FR	0	0	0	0	137.498	0
EN
