CM QFH optimized for LCP gain and circularity
CM By Peter Renner
CE
GW	2	12	-0.141	0	0.7298	0.141	0	0.7298	1.e-3
GW	4	12	0	0.13	0.715	0	-0.13	0.715	1.e-3
GW	5	12	0	0.13	0.039	0	-0.13	0.039	1.e-3
GW	6	12	-0.14	0	0	0.14	0	0	1.e-3
GW	9	50	0	0	0	0	0	0	1.e-3
GW	18	50	0	0	0	0	0	0	1.e-3
GW	20	50	0	0	0.039	0	0	0.039	1.e-3
GW	22	50	0	0	0.039	0	0	0.039	1.e-3
GE	0
GN	-1
EK
EX	0	8	1	0	1	0	0	0
FR	0	0	0	0	137.498	0
EN
